Circuit: * C:\Users\joa-m\E3-Pong\joystick_sim.asc

Direct Newton iteration failed to find .op point.  (Use ".option noopiter" to skip.)
Starting Gmin stepping
Gmin = 10
Gmin = 1.07374
Gmin = 0.115292
Gmin = 0.0123794
Gmin = 0.00132923
Gmin = 0.000142725
Gmin = 1.5325e-005
Gmin = 1.6455e-006
Gmin = 1.76685e-007
Gmin = 1.89714e-008
Gmin = 2.03704e-009
Gmin = 2.18725e-010
Gmin = 2.34854e-011
Gmin = 2.52173e-012
Gmin = 2.70769e-013
Gmin = 0
Gmin stepping succeeded in finding the operating point.


Date: Sun Nov 10 16:45:19 2019
Total elapsed time: 0.086 seconds.

tnom = 27
temp = 27
method = modified trap
totiter = 2062
traniter = 1667
tranpoints = 418
accept = 310
rejected = 108
matrix size = 33
fillins = 18
solver = Normal
Matrix Compiler1: 1.96 KB object code size  0.5/0.2/[0.2]
Matrix Compiler2: 2.66 KB object code size  0.3/0.4/[0.2]

