Circuit: * C:\Users\joa-m\E3-Pong\joystick_sim.asc

Direct Newton iteration failed to find .op point.  (Use ".option noopiter" to skip.)
Starting Gmin stepping
Gmin = 10
Gmin = 1.07374
Gmin = 0.115292
Gmin = 0.0123794
Gmin = 0.00132923
Gmin = 0.000142725
Gmin = 1.5325e-005
Gmin = 1.6455e-006
Gmin = 1.76685e-007
Gmin = 1.89714e-008
Gmin = 2.03704e-009
Gmin = 2.18725e-010
Gmin = 2.34854e-011
Gmin = 2.52173e-012
Gmin = 2.70769e-013
Gmin = 0
Gmin stepping succeeded in finding the operating point.


Date: Tue Nov 12 00:10:41 2019
Total elapsed time: 0.664 seconds.

tnom = 27
temp = 27
method = modified trap
totiter = 9392
traniter = 8889
tranpoints = 2129
accept = 1561
rejected = 568
matrix size = 128
fillins = 78
solver = Normal
Thread vector: 39.9/31.3[4] 20.4/15.0[4] 8.7/11.7[1] 0.7/5.2[1]  2592/500
Matrix Compiler1: 8.26 KB object code size  8.7/2.3/[0.8]
Matrix Compiler2: 10.59 KB object code size  2.9/4.3/[1.4]

