Circuit: * C:\Users\joa-m\E3-Pong\joystick_sim.asc

Direct Newton iteration failed to find .op point.  (Use ".option noopiter" to skip.)
Starting Gmin stepping
Gmin = 10
Gmin = 1.07374
Gmin = 0.115292
Gmin = 0.0123794
Gmin = 0.00132923
Gmin = 0.000142725
Gmin = 1.5325e-005
Gmin = 1.6455e-006
Gmin = 1.76685e-007
Gmin = 1.89714e-008
Gmin = 2.03704e-009
Gmin = 2.18725e-010
Gmin = 2.34854e-011
Gmin = 2.52173e-012
Gmin = 2.70769e-013
Gmin = 0
Gmin stepping succeeded in finding the operating point.


Date: Tue Nov 12 19:55:10 2019
Total elapsed time: 0.283 seconds.

tnom = 27
temp = 27
method = modified trap
totiter = 540
traniter = 74
tranpoints = 38
accept = 38
rejected = 0
matrix size = 98
fillins = 47
solver = Normal

